feeders/1_SE001_1/005_segmentoMT.dss
New Line.SMT_10007 phases=3 bus1=264011.1.2.3 bus2= 424451.1.2.3 linecode=10_3 length=0.09144 units=km
New Line.SMT_10008 phases=3 bus1=263951.1.2.3 bus2= 263981.1.2.3 linecode=10_3 length=0.0867 units=km
New Line.SMT_10016 phases=3 bus1=259071.1.2.3 bus2= 343901.1.2.3 linecode=36_3 length=0.08846 units=km
New Line.SMT_10032 phases=3 bus1=236761.1.2.3 bus2= 236771.1.2.3 linecode=36_3 length=0.06067 units=km
New Line.SMT_10033 phases=3 bus1=274701.1.2.3 bus2= 257501.1.2.3 linecode=13_3 length=0.028 units=km
New Line.SMT_10034 phases=3 bus1=270071.1.2.3 bus2= 270161.1.2.3 linecode=10_3 length=0.10377 units=km
New Line.SMT_10035 phases=3 bus1=257421.1.2.3 bus2= 612311.1.2.3 linecode=13_3 length=0.02447 units=km
New Line.SMT_10036 phases=3 bus1=257421.1.2.3 bus2= 274701.1.2.3 linecode=13_3 length=0.02662 units=km
New Line.SMT_10038 phases=3 bus1=257501.1.2.3 bus2= 268821.1.2.3 linecode=13_3 length=0.0033 units=km
New Line.SMT_10047 phases=3 bus1=342581.1.2.3 bus2= 270041.1.2.3 linecode=10_3 length=0.0922 units=km
New Line.SMT_10054 phases=3 bus1=265821.1.2.3 bus2= 265831.1.2.3 linecode=10_3 length=0.06332 units=km
New Line.SMT_10055 phases=3 bus1=285221.1.2.3 bus2= 285231.1.2.3 linecode=10_3 length=0.07072 units=km
New Line.SMT_10056 phases=3 bus1=263921.1.2.3 bus2= 263931.1.2.3 linecode=10_3 length=0.08121 units=km
New Line.SMT_10077 phases=1 bus1=264951.3 bus2= 264961.3 linecode=6_1 length=0.08102 units=km
New Line.SMT_10078 phases=3 bus1=263981.1.2.3 bus2= 263991.1.2.3 linecode=10_3 length=0.07612 units=km
New Line.SMT_10094 phases=3 bus1=377811.1.2.3 bus2= 322071.1.2.3 linecode=11_3 length=0.15063 units=km
New Line.SMT_10095 phases=3 bus1=1CS677.1.2.3 bus2= 298331.1.2.3 linecode=10_3 length=0.001 units=km
New Line.SMT_10103 phases=3 bus1=364031.1.2.3 bus2= 164051.1.2.3 linecode=10_3 length=0.00151 units=km
New Line.SMT_10125 phases=3 bus1=265041.1.2.3 bus2= 265001.1.2.3 linecode=10_3 length=0.06655 units=km
New Line.SMT_10127 phases=3 bus1=259061.1.2.3 bus2= 259071.1.2.3 linecode=36_3 length=0.03912 units=km
New Line.SMT_10130 phases=1 bus1=264941.3 bus2= 264951.3 linecode=6_1 length=0.07101 units=km
New Line.SMT_10148 phases=3 bus1=1CF675.1.2.3 bus2= 280281.1.2.3 linecode=10_3 length=0.04553 units=km
New Line.SMT_10156 phases=3 bus1=236771.1.2.3 bus2= 364031.1.2.3 linecode=36_3 length=0.07595 units=km
New Line.SMT_10173 phases=3 bus1=133251.1.2.3 bus2= 288561.1.2.3 linecode=36_3 length=0.06237 units=km
New Line.SMT_10175 phases=3 bus1=263121.1.2.3 bus2= 263131.1.2.3 linecode=10_3 length=0.10508 units=km
New Line.SMT_10182 phases=3 bus1=664151.1.2.3 bus2= 664161.1.2.3 linecode=36_3 length=0.03985 units=km
New Line.SMT_10186 phases=3 bus1=265931.1.2.3 bus2= 265911.1.2.3 linecode=10_3 length=0.09938 units=km
New Line.SMT_10189 phases=3 bus1=661901.1.2.3 bus2= 339711.1.2.3 linecode=10_3 length=0.02408 units=km
New Line.SMT_10190 phases=3 bus1=1CF1512.1.2.3 bus2= 377311.1.2.3 linecode=13_3 length=0.04915 units=km
New Line.SMT_10203 phases=3 bus1=264891.1.2.3 bus2= 264901.1.2.3 linecode=11_3 length=0.08784 units=km
New Line.SMT_10206 phases=3 bus1=281261.1.2.3 bus2= 163391.1.2.3 linecode=12_3 length=0.0046 units=km
New Line.SMT_10207 phases=3 bus1=358411.1.2.3 bus2= 298311.1.2.3 linecode=10_3 length=0.00903 units=km
New Line.SMT_10208 phases=3 bus1=263991.1.2.3 bus2= 264001.1.2.3 linecode=10_3 length=0.08041 units=km
New Line.SMT_10223 phases=3 bus1=285211.1.2.3 bus2= 285221.1.2.3 linecode=10_3 length=0.06595 units=km
New Line.SMT_10228 phases=3 bus1=377831.1.2.3 bus2= 393741.1.2.3 linecode=11_3 length=0.07878 units=km
New Line.SMT_10235 phases=3 bus1=309931.1.2.3 bus2= 309941.1.2.3 linecode=11_3 length=0.08902 units=km
New Line.SMT_10240 phases=1 bus1=264961.3 bus2= 264971.3 linecode=6_1 length=0.09001 units=km
New Line.SMT_10253 phases=3 bus1=265801.1.2.3 bus2= 265781.1.2.3 linecode=10_3 length=0.0725 units=km
New Line.SMT_10269 phases=3 bus1=269741.1.2.3 bus2= 275291.1.2.3 linecode=3_3 length=0.02968 units=km
New Line.SMT_10283 phases=3 bus1=338481.1.2.3 bus2= 377371.1.2.3 linecode=12_3 length=0.0254 units=km
New Line.SMT_10284 phases=1 bus1=249351.1 bus2= 249361.1 linecode=1_1 length=0.10512 units=km
New Line.SMT_10289 phases=3 bus1=288881.1.2.3 bus2= 262691.1.2.3 linecode=13_3 length=0.02335 units=km
New Line.SMT_10305 phases=3 bus1=664161.1.2.3 bus2= 255901.1.2.3 linecode=36_3 length=0.05797 units=km
New Line.SMT_10306 phases=1 bus1=249331.1 bus2= 249341.1 linecode=1_1 length=0.10065 units=km
New Line.SMT_10307 phases=3 bus1=281491.1.2.3 bus2= 281501.1.2.3 linecode=10_3 length=0.07203 units=km
New Line.SMT_10308 phases=3 bus1=245921.1.2.3 bus2= 735141.1.2.3 linecode=10_3 length=0.01713 units=km
New Line.SMT_10313 phases=3 bus1=260951.1.2.3 bus2= 260991.1.2.3 linecode=10_3 length=0.07819 units=km
New Line.SMT_10317 phases=3 bus1=263441.1.2.3 bus2= 273761.1.2.3 linecode=13_3 length=0.03178 units=km
New Line.SMT_10323 phases=1 bus1=264971.3 bus2= 291121.3 linecode=6_1 length=0.09876 units=km
New Line.SMT_10328 phases=3 bus1=219451.1.2.3 bus2= 257421.1.2.3 linecode=13_3 length=0.00248 units=km
New Line.SMT_10332 phases=3 bus1=200781.1.2.3 bus2= 200771.1.2.3 linecode=13_3 length=0.03606 units=km
New Line.SMT_10333 phases=3 bus1=263451.1.2.3 bus2= 288901.1.2.3 linecode=10_3 length=0.01897 units=km
New Line.SMT_10335 phases=3 bus1=262291.1.2.3 bus2= 262301.1.2.3 linecode=28_3 length=0.04851 units=km
New Line.SMT_10337 phases=3 bus1=289151.1.2.3 bus2= 289161.1.2.3 linecode=10_3 length=0.06207 units=km
New Line.SMT_10343 phases=3 bus1=288921.1.2.3 bus2= 288931.1.2.3 linecode=10_3 length=0.07877 units=km
New Line.SMT_10347 phases=3 bus1=1CS1548.1.2.3 bus2= 263491.1.2.3 linecode=13_3 length=0.04817 units=km
New Line.SMT_10357 phases=3 bus1=255971.1.2.3 bus2= 288351.1.2.3 linecode=36_3 length=0.06649 units=km
New Line.SMT_10375 phases=3 bus1=260921.1.2.3 bus2= 260931.1.2.3 linecode=10_3 length=0.09932 units=km
New Line.SMT_10378 phases=3 bus1=669841.1.2.3 bus2= 294681.1.2.3 linecode=10_3 length=0.0648 units=km
New Line.SMT_10379 phases=3 bus1=297461.1.2.3 bus2= 297471.1.2.3 linecode=10_3 length=0.04011 units=km
New Line.SMT_10383 phases=3 bus1=242291.1.2.3 bus2= 242311.1.2.3 linecode=10_3 length=0.03895 units=km
New Line.SMT_10388 phases=3 bus1=236651.1.2.3 bus2= 236641.1.2.3 linecode=13_3 length=0.0528 units=km
New Line.SMT_10399 phases=3 bus1=289291.1.2.3 bus2= 289301.1.2.3 linecode=10_3 length=0.06868 units=km
New Line.SMT_10400 phases=3 bus1=245881.1.2.3 bus2= 245871.1.2.3 linecode=10_3 length=0.0405 units=km
New Line.SMT_10401 phases=3 bus1=245991.1.2.3 bus2= 246001.1.2.3 linecode=10_3 length=0.03771 units=km
New Line.SMT_10409 phases=3 bus1=732201.1.2.3 bus2= 327971.1.2.3 linecode=10_3 length=0.03178 units=km
New Line.SMT_10412 phases=3 bus1=281431.1.2.3 bus2= 281441.1.2.3 linecode=10_3 length=0.05672 units=km
New Line.SMT_10413 phases=3 bus1=264821.1.2.3 bus2= 264071.1.2.3 linecode=10_3 length=0.06601 units=km
New Line.SMT_10416 phases=3 bus1=263461.1.2.3 bus2= 263451.1.2.3 linecode=10_3 length=0.03513 units=km
New Line.SMT_10422 phases=3 bus1=309901.1.2.3 bus2= 309911.1.2.3 linecode=11_3 length=0.12827 units=km
New Line.SMT_10424 phases=3 bus1=289001.1.2.3 bus2= 289011.1.2.3 linecode=10_3 length=0.1215 units=km
New Line.SMT_10425 phases=3 bus1=264871.1.2.3 bus2= 264881.1.2.3 linecode=11_3 length=0.1191 units=km
New Line.SMT_10429 phases=3 bus1=264881.1.2.3 bus2= 264891.1.2.3 linecode=11_3 length=0.08873 units=km
New Line.SMT_10437 phases=3 bus1=574521.1.2.3 bus2= 260951.1.2.3 linecode=10_3 length=0.10293 units=km
New Line.SMT_10442 phases=3 bus1=263111.1.2.3 bus2= 263121.1.2.3 linecode=10_3 length=0.10088 units=km
New Line.SMT_10447 phases=3 bus1=246931.1.2.3 bus2= 252521.1.2.3 linecode=10_3 length=0.04522 units=km
New Line.SMT_10450 phases=3 bus1=246801.1.2.3 bus2= 287621.1.2.3 linecode=10_3 length=0.02209 units=km
New Line.SMT_10455 phases=3 bus1=275261.1.2.3 bus2= 275251.1.2.3 linecode=13_3 length=0.03298 units=km
New Line.SMT_10457 phases=3 bus1=322081.1.2.3 bus2= 377821.1.2.3 linecode=11_3 length=0.13086 units=km
New Line.SMT_10470 phases=3 bus1=263901.1.2.3 bus2= 263911.1.2.3 linecode=10_3 length=0.07278 units=km
New Line.SMT_10473 phases=3 bus1=263851.1.2.3 bus2= 263861.1.2.3 linecode=10_3 length=0.0764 units=km
New Line.SMT_10474 phases=3 bus1=297471.1.2.3 bus2= 297481.1.2.3 linecode=10_3 length=0.03126 units=km
New Line.SMT_10476 phases=3 bus1=260931.1.2.3 bus2= 260941.1.2.3 linecode=10_3 length=0.11799 units=km
New Line.SMT_10483 phases=3 bus1=242281.1.2.3 bus2= 242291.1.2.3 linecode=10_3 length=0.01887 units=km
New Line.SMT_10486 phases=1 bus1=250191.1 bus2= 263011.1 linecode=1_1 length=0.10024 units=km
New Line.SMT_10487 phases=3 bus1=17FR499.1.2.3 bus2= 349711.1.2.3 linecode=10_3 length=0.06245 units=km
New Line.SMT_10488 phases=3 bus1=289501.1.2.3 bus2= 289511.1.2.3 linecode=10_3 length=0.09487 units=km
New Line.SMT_10489 phases=3 bus1=244011.1.2.3 bus2= 273781.1.2.3 linecode=28_3 length=0.00304 units=km
New Line.SMT_10490 phases=3 bus1=242201.1.2.3 bus2= 242281.1.2.3 linecode=10_3 length=0.03302 units=km
New Line.SMT_10496 phases=3 bus1=372781.1.2.3 bus2= 246991.1.2.3 linecode=3_3 length=0.02161 units=km
New Line.SMT_10506 phases=3 bus1=273471.1.2.3 bus2= 781051.1.2.3 linecode=10_3 length=0.00125 units=km
New Line.SMT_10517 phases=3 bus1=282201.1.2.3 bus2= 282191.1.2.3 linecode=10_3 length=0.02823 units=km
New Line.SMT_10525 phases=3 bus1=273711.1.2.3 bus2= 245961.1.2.3 linecode=10_3 length=0.04164 units=km
New Line.SMT_10526 phases=3 bus1=275311.1.2.3 bus2= 275301.1.2.3 linecode=13_3 length=0.04272 units=km
New Line.SMT_10527 phases=1 bus1=249261.1 bus2= 249331.1 linecode=1_1 length=0.09919 units=km
New Line.SMT_10534 phases=3 bus1=246901.1.2.3 bus2= 369501.1.2.3 linecode=10_3 length=0.007 units=km
New Line.SMT_10536 phases=3 bus1=289341.1.2.3 bus2= 289391.1.2.3 linecode=10_3 length=0.07692 units=km
New Line.SMT_10547 phases=3 bus1=241231.1.2.3 bus2= 241241.1.2.3 linecode=13_3 length=0.04838 units=km
New Line.SMT_10554 phases=3 bus1=273761.1.2.3 bus2= 263481.1.2.3 linecode=10_3 length=0.03171 units=km
New Line.SMT_10561 phases=1 bus1=1FR1174.3 bus2= 264931.3 linecode=6_1 length=0.05067 units=km
New Line.SMT_10566 phases=3 bus1=263911.1.2.3 bus2= 263921.1.2.3 linecode=10_3 length=0.07816 units=km
New Line.SMT_10567 phases=3 bus1=285231.1.2.3 bus2= 285241.1.2.3 linecode=10_3 length=0.07084 units=km
New Line.SMT_10571 phases=3 bus1=545141.1.2.3 bus2= 372521.1.2.3 linecode=13_3 length=0.06505 units=km
New Line.SMT_10576 phases=3 bus1=298301.1.2.3 bus2= 298291.1.2.3 linecode=10_3 length=0.05331 units=km
New Line.SMT_10593 phases=3 bus1=263051.1.2.3 bus2= 285211.1.2.3 linecode=10_3 length=0.07084 units=km
New Line.SMT_10614 phases=3 bus1=358411.1.2.3 bus2= 298301.1.2.3 linecode=10_3 length=0.036 units=km
New Line.SMT_10615 phases=3 bus1=441371.1.2.3 bus2= 442011.1.2.3 linecode=36_3 length=0.02693 units=km
New Line.SMT_10623 phases=3 bus1=249151.1.2.3 bus2= 281381.1.2.3 linecode=10_3 length=0.10977 units=km
New Line.SMT_10626 phases=3 bus1=219361.1.2.3 bus2= 219371.1.2.3 linecode=13_3 length=0.04201 units=km
New Line.SMT_10627 phases=3 bus1=270081.1.2.3 bus2= 270091.1.2.3 linecode=10_3 length=0.06037 units=km
New Line.SMT_10646 phases=1 bus1=263041.1 bus2= 440781.1 linecode=1_1 length=0.07737 units=km
New Line.SMT_10655 phases=3 bus1=270231.1.2.3 bus2= 270341.1.2.3 linecode=10_3 length=0.07046 units=km
New Line.SMT_10662 phases=3 bus1=289301.1.2.3 bus2= 289321.1.2.3 linecode=10_3 length=0.04576 units=km
New Line.SMT_10663 phases=3 bus1=289241.1.2.3 bus2= 289251.1.2.3 linecode=10_3 length=0.07052 units=km
New Line.SMT_10666 phases=3 bus1=444611.1.2.3 bus2= 244091.1.2.3 linecode=11_3 length=0.00224 units=km
New Line.SMT_10667 phases=3 bus1=245921.1.2.3 bus2= 245901.1.2.3 linecode=10_3 length=0.04206 units=km
New Line.SMT_10674 phases=3 bus1=281501.1.2.3 bus2= 281511.1.2.3 linecode=10_3 length=0.0728 units=km
New Line.SMT_10676 phases=3 bus1=200761.1.2.3 bus2= 200751.1.2.3 linecode=13_3 length=0.04366 units=km
New Line.SMT_10681 phases=3 bus1=244911.1.2.3 bus2= 329851.1.2.3 linecode=28_3 length=0.01326 units=km
New Line.SMT_10685 phases=3 bus1=275251.1.2.3 bus2= 241251.1.2.3 linecode=13_3 length=0.01803 units=km
New Line.SMT_10687 phases=3 bus1=263481.1.2.3 bus2= 297151.1.2.3 linecode=10_3 length=0.00064 units=km
New Line.SMT_10693 phases=3 bus1=246001.1.2.3 bus2= 246011.1.2.3 linecode=10_3 length=0.05535 units=km
New Line.SMT_10695 phases=1 bus1=250101.1 bus2= 250111.1 linecode=1_1 length=0.12782 units=km
New Line.SMT_10700 phases=1 bus1=377131.1 bus2= 345301.1 linecode=1_1 length=0.06478 units=km
New Line.SMT_10703 phases=1 bus1=249241.1 bus2= 249251.1 linecode=1_1 length=0.0841 units=km
New Line.SMT_10705 phases=1 bus1=254201.3 bus2= 254211.3 linecode=1_1 length=0.36968 units=km
New Line.SMT_10708 phases=3 bus1=288971.1.2.3 bus2= 288981.1.2.3 linecode=10_3 length=0.05404 units=km
New Line.SMT_10710 phases=1 bus1=250161.1 bus2= 250171.1 linecode=1_1 length=0.07145 units=km
New Line.SMT_10716 phases=3 bus1=246911.1.2.3 bus2= 245971.1.2.3 linecode=10_3 length=0.03106 units=km
New Line.SMT_10719 phases=2 bus1=270251.3.1 bus2= 270261.3.1 linecode=18_2 length=0.05148 units=km
New Line.SMT_10721 phases=1 bus1=441231.1 bus2= 441241.1 linecode=1_1 length=0.21719 units=km
New Line.SMT_10724 phases=1 bus1=249341.1 bus2= 249351.1 linecode=1_1 length=0.10108 units=km
New Line.SMT_10725 phases=3 bus1=244051.1.2.3 bus2= 323911.1.2.3 linecode=28_3 length=0.02768 units=km
New Line.SMT_10732 phases=3 bus1=246901.1.2.3 bus2= 246911.1.2.3 linecode=10_3 length=0.02902 units=km
New Line.SMT_10735 phases=3 bus1=288981.1.2.3 bus2= 288991.1.2.3 linecode=10_3 length=0.06403 units=km
New Line.SMT_10763 phases=3 bus1=263331.1.2.3 bus2= 259451.1.2.3 linecode=28_3 length=0.02918 units=km
New Line.SMT_10767 phases=3 bus1=241251.1.2.3 bus2= 269721.1.2.3 linecode=13_3 length=0.02474 units=km
New Line.SMT_10769 phases=3 bus1=281411.1.2.3 bus2= 281421.1.2.3 linecode=10_3 length=0.10141 units=km
New Line.SMT_10779 phases=3 bus1=295901.1.2.3 bus2= 295911.1.2.3 linecode=10_3 length=0.07211 units=km
New Line.SMT_10802 phases=3 bus1=252261.1.2.3 bus2= 252271.1.2.3 linecode=10_3 length=0.09462 units=km
New Line.SMT_10809 phases=3 bus1=219461.1.2.3 bus2= 219451.1.2.3 linecode=13_3 length=0.0589 units=km
New Line.SMT_10818 phases=3 bus1=338481.1.2.3 bus2= 377381.1.2.3 linecode=12_3 length=0.02148 units=km
New Line.SMT_10820 phases=3 bus1=1CF686.1.2.3 bus2= 245981.1.2.3 linecode=10_3 length=0.02153 units=km
New Line.SMT_10827 phases=3 bus1=266941.1.2.3 bus2= 254241.1.2.3 linecode=10_3 length=0.12402 units=km
New Line.SMT_10835 phases=3 bus1=260351.1.2.3 bus2= 662021.1.2.3 linecode=10_3 length=0.06217 units=km
New Line.SMT_10841 phases=3 bus1=258411.1.2.3 bus2= 661901.1.2.3 linecode=10_3 length=0.02927 units=km
New Line.SMT_10846 phases=3 bus1=259511.1.2.3 bus2= 259521.1.2.3 linecode=28_3 length=0.0392 units=km
New Line.SMT_10849 phases=3 bus1=225881.1.2.3 bus2= 225981.1.2.3 linecode=10_3 length=0.06083 units=km
New Line.SMT_10851 phases=3 bus1=282101.1.2.3 bus2= 282041.1.2.3 linecode=12_3 length=0.02563 units=km
New Line.SMT_10865 phases=3 bus1=254281.1.2.3 bus2= 254301.1.2.3 linecode=10_3 length=0.0801 units=km
New Line.SMT_10866 phases=3 bus1=270341.1.2.3 bus2= 270351.1.2.3 linecode=10_3 length=0.06528 units=km
New Line.SMT_10871 phases=3 bus1=266961.1.2.3 bus2= 266971.1.2.3 linecode=10_3 length=0.05772 units=km
New Line.SMT_10873 phases=3 bus1=275291.1.2.3 bus2= 269751.1.2.3 linecode=3_3 length=0.02062 units=km
New Line.SMT_10874 phases=3 bus1=229221.1.2.3 bus2= 229231.1.2.3 linecode=10_3 length=0.10032 units=km
New Line.SMT_10881 phases=3 bus1=255411.1.2.3 bus2= 219351.1.2.3 linecode=10_3 length=0.06957 units=km
New Line.SMT_10884 phases=3 bus1=282181.1.2.3 bus2= 72671.1.2.3 linecode=10_3 length=0.02977 units=km
New Line.SMT_10889 phases=3 bus1=1CF905.1.2.3 bus2= 263471.1.2.3 linecode=10_3 length=0.03017 units=km
New Line.SMT_10901 phases=3 bus1=656381.1.2.3 bus2= 583001.1.2.3 linecode=13_3 length=0.0876 units=km
New Line.SMT_10907 phases=3 bus1=1FR638.1.2.3 bus2= 229791.1.2.3 linecode=10_3 length=0.30954 units=km
New Line.SMT_10913 phases=3 bus1=289321.1.2.3 bus2= 289331.1.2.3 linecode=10_3 length=0.10013 units=km
New Line.SMT_10920 phases=3 bus1=244111.1.2.3 bus2= 348531.1.2.3 linecode=28_3 length=0.03178 units=km
New Line.SMT_10923 phases=3 bus1=1CF687.1.2.3 bus2= 244061.1.2.3 linecode=10_3 length=0.00192 units=km
New Line.SMT_10925 phases=3 bus1=275301.1.2.3 bus2= 250771.1.2.3 linecode=13_3 length=0.02012 units=km
New Line.SMT_10930 phases=3 bus1=403591.1.2.3 bus2= 289211.1.2.3 linecode=10_3 length=0.06818 units=km
New Line.SMT_10932 phases=3 bus1=1CS107.1.2.3 bus2= 262291.1.2.3 linecode=28_3 length=0.03845 units=km
New Line.SMT_10941 phases=3 bus1=289541.1.2.3 bus2= 289551.1.2.3 linecode=10_3 length=0.07142 units=km
New Line.SMT_10943 phases=3 bus1=263491.1.2.3 bus2= 200691.1.2.3 linecode=13_3 length=0.03257 units=km
New Line.SMT_10946 phases=2 bus1=270231.3.1 bus2= 270251.3.1 linecode=18_2 length=0.19791 units=km
New Line.SMT_10951 phases=3 bus1=245971.1.2.3 bus2= 273711.1.2.3 linecode=10_3 length=0.0049 units=km
New Line.SMT_10957 phases=3 bus1=273781.1.2.3 bus2= 244031.1.2.3 linecode=28_3 length=0.02102 units=km
New Line.SMT_10958 phases=3 bus1=273711.1.2.3 bus2= 296811.1.2.3 linecode=10_3 length=0.00591 units=km
New Line.SMT_10963 phases=3 bus1=289401.1.2.3 bus2= 289421.1.2.3 linecode=10_3 length=0.07469 units=km
New Line.SMT_10965 phases=1 bus1=249371.1 bus2= 249381.1 linecode=1_1 length=0.11512 units=km
New Line.SMT_10967 phases=1 bus1=254191.3 bus2= 254201.3 linecode=1_1 length=0.05441 units=km
New Line.SMT_10971 phases=1 bus1=1CF635.1 bus2= 295891.1 linecode=1_1 length=0.33059 units=km
New Line.SMT_10972 phases=3 bus1=262261.1.2.3 bus2= 263361.1.2.3 linecode=28_3 length=0.02596 units=km
New Line.SMT_10973 phases=3 bus1=281441.1.2.3 bus2= 281451.1.2.3 linecode=10_3 length=0.07809 units=km
New Line.SMT_10976 phases=1 bus1=440801.1 bus2= 441221.1 linecode=1_1 length=0.09362 units=km
New Line.SMT_10980 phases=3 bus1=1CS1230.1.2.3 bus2= 244001.1.2.3 linecode=28_3 length=0.00236 units=km
New Line.SMT_10990 phases=3 bus1=263471.1.2.3 bus2= 263461.1.2.3 linecode=10_3 length=0.03929 units=km
New Line.SMT_10994 phases=3 bus1=604761.1.2.3 bus2= 202161.1.2.3 linecode=10_3 length=0.02519 units=km
New Line.SMT_11003 phases=3 bus1=254281.1.2.3 bus2= 265611.1.2.3 linecode=10_3 length=0.09513 units=km
New Line.SMT_11006 phases=1 bus1=255811.1 bus2= 255831.1 linecode=1_1 length=0.16096 units=km
New Line.SMT_11010 phases=1 bus1=255831.1 bus2= 255841.1 linecode=1_1 length=0.19275 units=km
New Line.SMT_11011 phases=3 bus1=225991.1.2.3 bus2= 226001.1.2.3 linecode=10_3 length=0.07637 units=km
New Line.SMT_11012 phases=1 bus1=684361.1 bus2= 441231.1 linecode=1_1 length=0.13893 units=km
New Line.SMT_11015 phases=3 bus1=273781.1.2.3 bus2= 244021.1.2.3 linecode=28_3 length=0.03968 units=km
New Line.SMT_11019 phases=3 bus1=374781.1.2.3 bus2= 374791.1.2.3 linecode=36_3 length=0.04965 units=km
New Line.SMT_11020 phases=3 bus1=374821.1.2.3 bus2= 358511.1.2.3 linecode=36_3 length=0.06847 units=km
New Line.SMT_11021 phases=3 bus1=358151.1.2.3 bus2= 358531.1.2.3 linecode=36_3 length=0.05036 units=km
New Line.SMT_11022 phases=3 bus1=358531.1.2.3 bus2= 358541.1.2.3 linecode=36_3 length=0.04727 units=km
New Line.SMT_11036 phases=3 bus1=358561.1.2.3 bus2= 358571.1.2.3 linecode=36_3 length=0.03833 units=km
New Line.SMT_11037 phases=3 bus1=358571.1.2.3 bus2= 358701.1.2.3 linecode=10_3 length=0.08194 units=km
New Line.SMT_11038 phases=3 bus1=358701.1.2.3 bus2= 325571.1.2.3 linecode=10_3 length=0.08431 units=km
New Line.SMT_11039 phases=3 bus1=269751.1.2.3 bus2= 269761.1.2.3 linecode=3_3 length=0.01844 units=km
New Line.SMT_11050 phases=3 bus1=1CS1211.1.2.3 bus2= 247051.1.2.3 linecode=10_3 length=0.02943 units=km
New Line.SMT_11055 phases=1 bus1=345301.1 bus2= 255811.1 linecode=1_1 length=0.21631 units=km
New Line.SMT_11068 phases=3 bus1=244001.1.2.3 bus2= 244011.1.2.3 linecode=28_3 length=0.03833 units=km
New Line.SMT_11071 phases=1 bus1=702171.3 bus2= 253131.3 linecode=1_1 length=0.18512 units=km
New Line.SMT_11073 phases=3 bus1=289251.1.2.3 bus2= 289291.1.2.3 linecode=10_3 length=0.0895 units=km
...
